** Profile: "SCHEMATIC1-circuitwithad8608"  [ C:\USERS\AYDýN UZUN\circuitwithad8608-PSpiceFiles\SCHEMATIC1\circuitwithad8608.sim ] 

** Creating circuit file "circuitwithad8608.cir" 
** WARNING: THIS AUTOMATICALLY GENERATED FILE MAY BE OVERWRITTEN BY SUBSEQUENT SIMULATIONS

*Libraries: 
* Profile Libraries :
* Local Libraries :
.LIB "C:/Cadence/SPB_17.2/tools/capture/library/pspice/userlib/ad8608.lib" 
* From [PSPICE NETLIST] section of C:\Users\Aydýn Uzun\AppData\Roaming\SPB_Data\cdssetup\OrCAD_PSpice\17.2.0\PSpice.ini file:
.lib "nomd.lib" 

*Analysis directives: 
.TRAN  0 10s 0 
.OPTIONS ADVCONV
.PROBE64 V(alias(*)) I(alias(*)) W(alias(*)) D(alias(*)) NOISE(alias(*)) 
.INC "..\SCHEMATIC1.net" 


.END
